6
autodE NEB point 0. E = none
F   -3.57478  -0.07865  0.06268  
Cl  1.62677   0.02761   -0.01592 
C   -0.14057  0.00331   -0.00258 
H   -0.48683  -0.61133  -0.82650 
H   -0.47676  -0.41236  0.94118  
H   -0.50350  1.01931   -0.11460 
6
autodE NEB point 1. E = none
F   -3.50439  -0.07015  0.03614  
Cl  1.72713   0.03535   -0.04049 
C   -0.23125  -0.00042  0.00701  
H   -0.52509  -0.62288  -0.82225 
H   -0.48472  -0.42112  0.96629  
H   -0.53736  1.02710   -0.10244 
6
autodE NEB point 2. E = none
F   -3.43090  -0.01468  0.12153  
Cl  1.82596   0.08315   0.03064  
C   -0.32218  -0.02228  -0.02313 
H   -0.48863  -0.65567  -0.87417 
H   -0.54776  -0.45253  0.93454  
H   -0.59216  1.00989   -0.14514 
6
autodE NEB point 3. E = none
F   -3.36163  -0.06522  0.05166  
Cl  1.93065   0.04829   -0.01977 
C   -0.41237  -0.00608  0.00204  
H   -0.56390  -0.63922  -0.84919 
H   -0.55245  -0.43304  0.97491  
H   -0.59598  1.04316   -0.11538 
6
autodE NEB point 4. E = none
F   -3.28910  -0.06506  0.04900  
Cl  2.03379   0.04956   -0.02132 
C   -0.50177  -0.00752  0.00341  
H   -0.59386  -0.64284  -0.85309 
H   -0.58009  -0.43537  0.98135  
H   -0.62464  1.04913   -0.11508 
6
autodE NEB point 5. E = none
F   -3.21374  -0.06372  0.04787  
Cl  2.13962   0.05183   -0.02153 
C   -0.58837  -0.00931  0.00413  
H   -0.62639  -0.64553  -0.85560 
H   -0.61059  -0.43717  0.98453  
H   -0.65620  1.05180   -0.11513 
6
autodE NEB point 6. E = none
F   -3.13405  -0.06201  0.04647  
Cl  2.24981   0.05478   -0.02169 
C   -0.67057  -0.01130  0.00486  
H   -0.66401  -0.64725  -0.85636 
H   -0.64525  -0.43860  0.98602  
H   -0.69159  1.05229   -0.11503 
6
autodE NEB point 7. E = none
F   -3.05082  -0.06033  0.04514  
Cl  2.36340   0.05750   -0.02147 
C   -0.74934  -0.01300  0.00569  
H   -0.70529  -0.64843  -0.85638 
H   -0.68274  -0.43946  0.98612  
H   -0.73087  1.05163   -0.11484 
6
autodE NEB point 8. E = none
F   -2.96738  -0.05851  0.04367  
Cl  2.47720   0.06056   -0.02157 
C   -0.82787  -0.01481  0.00641  
H   -0.74674  -0.64881  -0.85529 
H   -0.72103  -0.44003  0.98552  
H   -0.76983  1.04951   -0.11448 
6
autodE NEB point 9. E = none
F   -2.88642  -0.05679  0.04248  
Cl  2.58844   0.06354   -0.02138 
C   -0.90890  -0.01671  0.00743  
H   -0.78585  -0.64781  -0.85258 
H   -0.75669  -0.43962  0.98244  
H   -0.80624  1.04531   -0.11414 
6
autodE NEB point 10. E = none
F   -2.80867  -0.05508  0.04127  
Cl  2.69661   0.06636   -0.02176 
C   -0.99297  -0.01847  0.00863  
H   -0.82074  -0.64513  -0.84770 
H   -0.79025  -0.43836  0.97736  
H   -0.83963  1.03860   -0.11355 
6
autodE NEB point 11. E = none
F   -2.73510  -0.05353  0.04007  
Cl  2.80064   0.06862   -0.02240 
C   -1.08121  -0.02020  0.01007  
H   -0.85043  -0.64048  -0.84023 
H   -0.81991  -0.43546  0.96913  
H   -0.86965  1.02897   -0.11239 
6
autodE NEB point 12. E = none
F   -2.66220  -0.05209  0.03854  
Cl  2.90424   0.07068   -0.02334 
C   -1.16986  -0.02194  0.01129  
H   -0.87922  -0.63512  -0.83162 
H   -0.84917  -0.43199  0.96017  
H   -0.89944  1.01839   -0.11078 
6
autodE NEB point 13. E = none
F   -2.59226  -0.05069  0.03700  
Cl  3.00568   0.07252   -0.02455 
C   -1.26067  -0.02360  0.01282  
H   -0.90475  -0.62937  -0.82260 
H   -0.87647  -0.42843  0.95082  
H   -0.92718  1.00751   -0.10924 
