10
Coordinates from ORCA-job m-mfaV_2-6_hl1d_fbond_hess_orca
  C   -1.24380179000000      0.09254959000000     -0.00966501000000
  C   0.12662310000000     -0.52860393000000      0.06281618000000
  C   1.32594108000000      0.28682815000000     -0.24627833000000
  H   -1.23918456000000      1.12004966000000      0.40880401000000
  H   -2.00018380000000     -0.49760064000000      0.54569941000000
  H   -1.59039962000000      0.17613738000000     -1.06558376000000
  H   0.81057384000000     -0.22486795000000      0.93567249000000
  H   0.22265152000000     -1.60459875000000     -0.16096709000000
  H   1.28242363000000      1.37808221000000     -0.10648726000000
  H   2.30525660000000     -0.19807573000000     -0.36401066000000
