10

C   0.24130   1.18946   -1.34051 
H   1.03745   1.20021   -0.74983 
H   -0.45370  1.78616   -0.96128 
H   -0.12010  0.26869   -1.40754 
H   0.50268   1.50546   -2.24313 
C   1.64743   -2.53905  1.47522  
H   2.46916   -2.58979  2.02764  
H   1.09612   -1.77194  1.77618  
H   1.12315   -3.37468  1.57431  
H   1.90156   -2.42068  0.52423  
