11

C   1.91377   -2.79051  0.08760  
H   1.20123   -2.52139  0.72216  
H   2.75958   -2.35178  0.36144  
H   2.01791   -3.77559  0.12702  
H   1.66915   -2.51435  -0.83261 
C   0.23159   1.52296   -0.40782 
C   -1.04138  1.09380   0.09279  
H   0.29887   1.68102   -1.38179 
H   0.96453   1.62902   0.24767  
H   -1.42544  0.26112   -0.27752 
H   -1.44965  1.66191   0.79176  
