12

C   -1.71819  -0.36077  0.03028  
C   -0.28908  -0.47610  0.07460  
C   -2.63380  0.73792   -0.08942 
H   -2.54342  1.24286   0.75799  
H   -3.56738  0.42843   -0.20872 
H   -2.33381  1.23276   -0.89333 
C   0.84354   0.39995   -0.02395 
H   0.65883   1.06338   -0.73585 
H   1.65521   -0.11841  -0.25624 
H   0.92244   0.81001   0.87426  
H   -2.27887  -1.17364  0.08700  
H   0.08965   -1.37527  0.23712  
