18
Coordinates from ORCA-job oQi422_hl_neb_2-8_2-3_3-8_hess_orca
  C   2.31445910000000      0.27172214000000      1.67381685000000
  C   1.68806225000000     -0.96806324000000      1.06660494000000
  C   0.25868368000000     -0.74856815000000      0.62344350000000
  Co  -0.79234172000000     -2.33992829000000      0.01835293000000
  C   -1.01772088000000     -3.63253946000000     -1.20422714000000
  O   -1.04797122000000     -4.45813315000000     -1.98575760000000
  C   -2.22594135000000     -1.28969065000000     -0.34003440000000
  O   -3.09312363000000     -0.60765742000000     -0.59380463000000
  H   0.07247971000000     -1.47042720000000     -0.82109544000000
  H   0.44020176000000     -3.11350398000000      0.19024396000000
  C   -1.14487146000000     -2.94101426000000      1.65227059000000
  O   -1.29806350000000     -3.33296676000000      2.71171179000000
  O   -0.28655899000000      0.31488025000000      0.74349117000000
  H   3.34541662000000      0.07201138000000      1.99315657000000
  H   2.32400384000000      1.10093494000000      0.94981352000000
  H   1.74055055000000      0.61376910000000      2.54693718000000
  H   1.69722185000000     -1.82190836000000      1.76573363000000
  H   2.24186338000000     -1.32743686000000      0.18213257000000
