14
Coordinates from ORCA-job ww_vw30-1_1-20-2_hl1d_alt_fbond_hess_orca
  H   0.32193705000000      0.38684772000000     -0.32719259000000
  Co  0.90839100000000      1.27090902000000      0.67650093000000
  C   -0.43166907000000     -0.20929906000000      1.11413496000000
  C   0.75896686000000     -0.38597598000000      1.85390638000000
  C   0.22086397000000      2.40206019000000     -0.47619384000000
  O   -0.22112999000000      3.07535579000000     -1.28713348000000
  C   2.59652395000000      0.95424027000000      0.18149257000000
  O   3.67471104000000      0.75400854000000     -0.13520990000000
  C   0.95001281000000      2.32128169000000      2.12498158000000
  O   0.97270029000000      2.96857919000000      3.06496285000000
  H   -1.29324570000000      0.27739761000000      1.58058432000000
  H   -0.71148497000000     -0.95315223000000      0.36165887000000
  H   1.45881802000000     -1.17630054000000      1.56917689000000
  H   0.78898481000000     -0.11439219000000      2.91256049000000
