10
Coordinates from ORCA-job m-mfaV_ll_neb_2-6_1-6_hess_orca
  C   -1.18411974000000      0.11758787000000     -0.00135401000000
  C   0.21380557000000     -0.47379091000000      0.16889268000000
  C   1.31708350000000      0.34589088000000     -0.37070023000000
  H   -1.20530489000000      1.17296245000000      0.26447627000000
  H   -1.87820804000000     -0.40912945000000      0.65036772000000
  H   -1.52676968000000      0.01432511000000     -1.02785230000000
  H   0.41049238000000     -0.55863292000000      1.24936101000000
  H   0.24612796000000     -1.48483037000000     -0.24928380000000
  H   1.33588529000000      1.40036024000000     -0.16930540000000
  H   2.27084031000000     -0.12488585000000     -0.51456670000000
