14

O   -2.70081  2.03402   0.08021  
C   -1.49480  1.52749   -0.12488 
Rh  0.17501   0.23899   -0.00572 
C   0.32175   1.16462   1.88735  
O   0.23621   1.73242   3.08037  
C   -1.24362  -1.31366  -0.20512 
C   0.06746   -1.81183  -0.50166 
H   0.83648   1.56582   -0.87587 
C   2.25000   -0.11519  0.17236  
O   3.48007   -0.59649  0.26491  
H   -1.84210  -1.17971  -0.98122 
H   -1.60684  -1.43794  0.70651  
H   0.35043   -1.86798  -1.44776 
H   0.48235   -2.37920  0.19428  
