16
Coordinates from ORCA-job INT3_opt_orca
  C   2.04176881094186      0.29194972919869     -0.30604637801573
  C   0.64870410034827      0.88067579157080     -0.41939194012282
  Co  -0.94222318091596     -0.29483726830669      0.22993816753819
  C   -1.93475829708936      0.83542767566502     -0.73219554626580
  O   -2.54039541220680      1.54224132639798     -1.39245476166672
  C   -0.24979628800841      0.04531326226875      1.83605087517896
  O   0.23756644229190      0.26775917328979      2.84431429529879
  C   -2.35058989648196     -1.18075312594128      0.87366313664634
  O   -3.25874551849521     -1.72319384894697      1.29526879332433
  C   -0.21716566684926     -1.62349882935121     -0.72022835344237
  O   0.27174111586161     -2.43811680690285     -1.35142904218754
  H   2.79333380964034      1.05069548572677     -0.58709558132351
  H   2.28665155257569     -0.04466024217143      0.71381707709396
  H   2.19493112285960     -0.56575310278317     -0.97723548102226
  H   0.44019401703371      1.14415763181399     -1.46681170697700
  H   0.57868328849398      1.81269311847182      0.15993641594319
