6
autodE NEB point 0. E = none
F   -3.58207  -0.13976  0.13627  
Cl  1.63619   0.06358   -0.06389 
C   -0.15423  -0.00596  0.00601  
H   -0.50510  -0.60101  -0.84442 
H   -0.43967  -0.47522  0.95399  
H   -0.53719  1.01861   -0.05170 
6
autodE NEB point 1. E = none
F   -3.51680  -0.13724  0.13379  
Cl  1.72766   0.06694   -0.06766 
C   -0.22734  -0.00876  0.00887  
H   -0.53282  -0.60205  -0.84330 
H   -0.46764  -0.47627  0.95513  
H   -0.56513  1.01763   -0.05058 
6
autodE NEB point 2. E = none
F   -3.45153  -0.13472  0.13131  
Cl  1.81913   0.07030   -0.07143 
C   -0.30045  -0.01157  0.01173  
H   -0.56055  -0.60309  -0.84218 
H   -0.49561  -0.47733  0.95628  
H   -0.59307  1.01664   -0.04945 
6
autodE NEB point 3. E = none
F   -3.38626  -0.13220  0.12883  
Cl  1.91061   0.07366   -0.07520 
C   -0.37357  -0.01437  0.01460  
H   -0.58827  -0.60413  -0.84106 
H   -0.52358  -0.47838  0.95742  
H   -0.62101  1.01565   -0.04832 
6
autodE NEB point 4. E = none
F   -3.32099  -0.12967  0.12636  
Cl  2.00208   0.07701   -0.07897 
C   -0.44668  -0.01717  0.01746  
H   -0.61599  -0.60516  -0.83994 
H   -0.55155  -0.47943  0.95856  
H   -0.64894  1.01467   -0.04720 
6
autodE NEB point 5. E = none
F   -3.25572  -0.12715  0.12388  
Cl  2.09355   0.08037   -0.08274 
C   -0.51979  -0.01997  0.02032  
H   -0.64372  -0.60620  -0.83882 
H   -0.57952  -0.48048  0.95970  
H   -0.67688  1.01368   -0.04608 
6
autodE NEB point 6. E = none
F   -3.19045  -0.12463  0.12140  
Cl  2.18502   0.08373   -0.08651 
C   -0.59290  -0.02278  0.02318  
H   -0.67144  -0.60724  -0.83770 
H   -0.60749  -0.48154  0.96085  
H   -0.70482  1.01270   -0.04495 
6
autodE NEB point 7. E = none
F   -3.12518  -0.12211  0.11892  
Cl  2.27649   0.08709   -0.09029 
C   -0.66601  -0.02558  0.02604  
H   -0.69917  -0.60828  -0.83658 
H   -0.63546  -0.48259  0.96199  
H   -0.73276  1.01172   -0.04383 
6
autodE NEB point 8. E = none
F   -3.05991  -0.11959  0.11644  
Cl  2.36797   0.09045   -0.09406 
C   -0.73913  -0.02838  0.02891  
H   -0.72689  -0.60932  -0.83547 
H   -0.66343  -0.48364  0.96313  
H   -0.76070  1.01073   -0.04270 
6
autodE NEB point 9. E = none
F   -2.99464  -0.11707  0.11396  
Cl  2.45944   0.09381   -0.09783 
C   -0.81224  -0.03119  0.03177  
H   -0.75461  -0.61036  -0.83435 
H   -0.69140  -0.48470  0.96428  
H   -0.78864  1.00975   -0.04158 
6
autodE NEB point 10. E = none
F   -2.92937  -0.11455  0.11148  
Cl  2.55091   0.09717   -0.10160 
C   -0.88535  -0.03399  0.03463  
H   -0.78234  -0.61140  -0.83323 
H   -0.71937  -0.48575  0.96542  
H   -0.81658  1.00876   -0.04045 
6
autodE NEB point 11. E = none
F   -2.86410  -0.11202  0.10901  
Cl  2.64238   0.10052   -0.10537 
C   -0.95846  -0.03679  0.03749  
H   -0.81006  -0.61243  -0.83211 
H   -0.74734  -0.48680  0.96656  
H   -0.84451  1.00778   -0.03932 
6
autodE NEB point 12. E = none
F   -2.79883  -0.10950  0.10653  
Cl  2.73386   0.10388   -0.10914 
C   -1.03158  -0.03959  0.04036  
H   -0.83778  -0.61347  -0.83099 
H   -0.77531  -0.48785  0.96770  
H   -0.87245  1.00679   -0.03820 
6
autodE NEB point 13. E = none
F   -2.66829  -0.10446  0.10157  
Cl  2.91680   0.11060   -0.11668 
C   -1.17780  -0.04520  0.04608  
H   -0.89323  -0.61555  -0.82875 
H   -0.83125  -0.48996  0.96999  
H   -0.92833  1.00482   -0.03595 
