10
Coordinates from ORCA-job m-mfaV_2-6_hl1d_fbond_scan_4_orca
  C   -1.21098707141357      0.10639139823336      0.00163206535315
  C   0.18298517388056     -0.49134946744678      0.12810472006278
  C   1.32104022053985      0.30905698585821     -0.31941957018145
  H   -1.24137519935140      1.13907630753065      0.40572050319149
  H   -1.96445062115079     -0.49455766773739      0.54832478848746
  H   -1.52134463004621      0.15644404594765     -1.06313780302307
  H   0.59593373721457     -0.42615021800029      1.13932286818682
  H   0.23432764835675     -1.55127539721021     -0.19471470275462
  H   1.29005028822669      1.40758262466762     -0.21394446835472
  H   2.31372046374355     -0.15531862184282     -0.43188840096784
