10
Coordinates from ORCA-job m-mfaV_2-6_hl1d_fbond_scan_8_orca
  C   -1.24380178595798      0.09254959354456     -0.00966500608555
  C   0.12662309901243     -0.52860393307968      0.06281617991826
  C   1.32594107760534      0.28682815010929     -0.24627833423849
  H   -1.23918456034427      1.12004965791440      0.40880401395735
  H   -2.00018379759855     -0.49760064415754      0.54569941490452
  H   -1.59039962099038      0.17613738271622     -1.06558376121935
  H   0.81057383697954     -0.22486794531370      0.93567248685900
  H   0.22265152334380     -1.60459874726316     -0.16096708819936
  H   1.28242362704508      1.37808220656725     -0.10648726064316
  H   2.30525660090499     -0.19807573103765     -0.36401065525321
