10
Coordinates from ORCA-job m-mfaV_2-6_hl1d_fbond_scan_6_orca
  C   -1.22913499393218      0.10006724033095     -0.00467397567771
  C   0.15700496274969     -0.50490348899158      0.07918895386959
  C   1.31837181824679      0.30079091122259     -0.30843844616226
  H   -1.23570136068080      1.14109423286151      0.37773405861597
  H   -1.96919121374720     -0.48317621565211      0.57868386847735
  H   -1.57904111490905      0.13329129527058     -1.05917631439338
  H   0.70587135948166     -0.32348599991825      1.01612294300052
  H   0.22603374646066     -1.57352001810355     -0.19762293127298
  H   1.29672223052266      1.38668866127139     -0.11316620841847
  H   2.30896455580778     -0.17694661829152     -0.36865194803863
