10
Coordinates from ORCA-job m-mfaV_2-6_hl1d_fbond_scan_9_orca
  C   -1.30673818446161      0.06602790807209     -0.04761907191644
  C   0.02272458433677     -0.60736157955635     -0.05867805024268
  C   1.28264026616698      0.16194687626499     -0.06489511213765
  H   -1.57599953024674      0.44343474212576      0.97199381997162
  H   -2.12828064517627     -0.61516702461306     -0.35115436107794
  H   -1.32400300323388      0.95650537123187     -0.71358455325218
  H   1.54881747187281      0.65192608221696      1.09530542327775
  H   0.06466027747396     -1.67900527669264      0.20432381060392
  H   1.23962520129629      1.06210591259232     -0.71492634548612
  H   2.17645356197169     -0.44051302164195     -0.32076557974027
