10
Coordinates from ORCA-job m-mfaV_2-6_hl1d_fbond_scan_11_orca
  C   -1.30334066310446      0.06805140355951     -0.04211803758471
  C   0.02826083005429     -0.60130000706783     -0.04713762447943
  C   1.29515858425555      0.18693223372425     -0.01406826851769
  H   -1.58090826684222      0.44848864375497      0.97479307025592
  H   -2.12173937732466     -0.61533422600175     -0.34962676331175
  H   -1.32084795482773      0.95838902473453     -0.70908458792328
  H   1.50210141178965      0.59073555234229      0.97396793616798
  H   0.07363503827165     -1.67506633267737      0.20693883307673
  H   1.25028159317432      1.06373003541164     -0.69808547945975
  H   2.17729879455361     -0.42472633778024     -0.29557908822402
