10
Coordinates from ORCA-job m-mfaV_2-6_hl1d_fbond_scan_10_orca
  C   -1.30543544900438      0.06694484764341     -0.04520324254973
  C   0.02501498672394     -0.60456835943472     -0.05417876780744
  C   1.28921523807997      0.17571912391123     -0.03925434374750
  H   -1.57844003764248      0.44464896591322      0.97383564852588
  H   -2.12525872369482     -0.61520658062035     -0.35135892261595
  H   -1.32348223538798      0.95847595205367     -0.71013918892260
  H   1.52531719487869      0.62070324975057      1.03582316297789
  H   0.06976295916349     -1.67649312528196      0.20741705071230
  H   1.24671078348794      1.06265738909462     -0.70895474355023
  H   2.17649528339562     -0.43298147302970     -0.30798667302261
