13

C    -0.10935   0.13899    -1.54014 
C    -0.36942   -0.99430   -0.72861 
Cl   0.56116    -1.01085   1.02945  
H    0.91387    0.22900    -1.89318 
H    -0.47597   1.08259    -1.14781 
H    -0.85523   -0.05339   -2.69955 
H    0.01148    -1.93976   -1.10288 
H    -1.38577   -1.08234   -0.35633 
O    -1.50578   -0.25645   -3.71403 
C    -1.70395   -1.61597   -3.81341 
H    -2.12821   -2.04345   -2.88691 
H    -2.40540   -1.82301   -4.63288 
H    -0.76428   -2.15945   -4.02531 
