22

O    1.24770    -0.22820   -2.56460 
C    1.35240    -0.27470   -1.31950 
C    2.58370    0.19150    -0.71220 
C    2.56960    0.70160    0.51580  
C    0.26940    -0.78380   -0.48440 
C    -1.10280   -0.48700   -1.06590 
N    -1.19180   0.94120    -0.70030 
C    -1.10590   0.69700    0.75500  
C    -2.21520   -0.27440   0.90310  
C    -2.15310   -1.04540   -0.17240 
C    0.16890    -0.09990   0.84950  
C    1.29370    0.76210    1.18870  
O    1.12640    1.59880    2.12140  
H    3.54730    0.15130    -1.20790 
H    3.44680    1.06580    1.02520  
H    0.33770    -1.88690   -0.39850 
H    -1.21590   -0.67950   -2.10810 
H    -2.18630   1.20810    -0.88720 
H    -1.16200   1.58020    1.34700  
H    -2.90350   -0.31960   1.71620  
H    -2.72750   -1.92850   -0.41890 
H    0.02050    -0.88980   1.61800  
